10
 EC EC.ff
 H00           1.000000        1.000000        0.000000
 C01          -0.093000        1.000000        0.000000
 H02          -0.459000        1.000000        1.029510
 O03          -0.581000       -0.050350       -0.643270
 C04          -0.676000        2.155870       -0.832180
 C05          -1.321000        0.273910       -1.561980
 H06           0.098000        2.733260       -1.344220
 H07          -1.298000        2.824540       -0.231890
 O08          -1.406000        1.488440       -1.713890
 O09          -1.917000       -0.533020       -2.257960
