21
  DPE
 O00           1.000000        1.000000        0.000000
 C01          -0.440000        1.000000        0.000000
 C02           1.592000        1.000000       -1.312200
 C03          -1.012000        0.998190        1.432650
 C04           3.134000        1.001810       -1.245160
 C05          -2.558000        0.999990        1.439320
 C06           3.775000        1.000010       -2.651010
 H07          -0.808000        0.111330       -0.521830
 H08          -0.808000        1.889990       -0.519590
 H09           1.268000        1.888640       -1.862220
 H0A           1.270000        0.110040       -1.861290
 H0B          -0.651000        1.880280        1.968190
 H0C          -0.653000        0.113410        1.965130
 H0D           3.473000        0.119770       -0.695820
 H0E           3.471000        1.886550       -0.698970
 H0F          -2.934000        0.997370        2.462630
 H0G          -2.943000        1.888640        0.934070
 H0H          -2.945000        0.115290        0.928760
 H0I           4.863000        1.002630       -2.573280
 H0J           3.473000        0.111330       -3.209600
 H0K           3.469000        1.884730       -3.213700
